375
	molec
O  0.000000  0.000000  0.000000
H  0.000000  0.958400  0.000000
H  0.928082  -0.239154  0.000000
O  0.000000  0.000000  1.927573
H  0.000000  0.958400  1.927573
H  0.928082  -0.239154  1.927573
O  0.000000  0.000000  3.855146
H  0.000000  0.958400  3.855146
H  0.928082  -0.239154  3.855146
O  0.000000  0.000000  5.782720
H  0.000000  0.958400  5.782720
H  0.928082  -0.239154  5.782720
O  0.000000  0.000000  7.710293
H  0.000000  0.958400  7.710293
H  0.928082  -0.239154  7.710293
O  0.000000  1.927573  0.000000
H  0.000000  2.885973  0.000000
H  2.794678  -0.720151  0.000000
O  0.000000  1.927573  1.927573
H  0.000000  2.885973  1.927573
H  2.794678  -0.720151  1.927573
O  0.000000  1.927573  3.855146
H  0.000000  2.885973  3.855146
H  2.794678  -0.720151  3.855146
O  0.000000  1.927573  5.782720
H  0.000000  2.885973  5.782720
H  2.794678  -0.720151  5.782720
O  0.000000  1.927573  7.710293
H  0.000000  2.885973  7.710293
H  2.794678  -0.720151  7.710293
O  0.000000  3.855146  0.000000
H  0.000000  4.813546  0.000000
H  4.661274  -1.201149  0.000000
O  0.000000  3.855146  1.927573
H  0.000000  4.813546  1.927573
H  4.661274  -1.201149  1.927573
O  0.000000  3.855146  3.855146
H  0.000000  4.813546  3.855146
H  4.661274  -1.201149  3.855146
O  0.000000  3.855146  5.782720
H  0.000000  4.813546  5.782720
H  4.661274  -1.201149  5.782720
O  0.000000  3.855146  7.710293
H  0.000000  4.813546  7.710293
H  4.661274  -1.201149  7.710293
O  0.000000  5.782720  0.000000
H  0.000000  6.741120  0.000000
H  6.527869  -1.682146  0.000000
O  0.000000  5.782720  1.927573
H  0.000000  6.741120  1.927573
H  6.527869  -1.682146  1.927573
O  0.000000  5.782720  3.855146
H  0.000000  6.741120  3.855146
H  6.527869  -1.682146  3.855146
O  0.000000  5.782720  5.782720
H  0.000000  6.741120  5.782720
H  6.527869  -1.682146  5.782720
O  0.000000  5.782720  7.710293
H  0.000000  6.741120  7.710293
H  6.527869  -1.682146  7.710293
O  0.000000  7.710293  0.000000
H  0.000000  8.668693  0.000000
H  8.394465  -2.163143  0.000000
O  0.000000  7.710293  1.927573
H  0.000000  8.668693  1.927573
H  8.394465  -2.163143  1.927573
O  0.000000  7.710293  3.855146
H  0.000000  8.668693  3.855146
H  8.394465  -2.163143  3.855146
O  0.000000  7.710293  5.782720
H  0.000000  8.668693  5.782720
H  8.394465  -2.163143  5.782720
O  0.000000  7.710293  7.710293
H  0.000000  8.668693  7.710293
H  8.394465  -2.163143  7.710293
O  1.927573  0.000000  0.000000
H  1.927573  0.958400  0.000000
H  0.447085  -2.105750  0.000000
O  1.927573  0.000000  1.927573
H  1.927573  0.958400  1.927573
H  0.447085  -2.105750  1.927573
O  1.927573  0.000000  3.855146
H  1.927573  0.958400  3.855146
H  0.447085  -2.105750  3.855146
O  1.927573  0.000000  5.782720
H  1.927573  0.958400  5.782720
H  0.447085  -2.105750  5.782720
O  1.927573  0.000000  7.710293
H  1.927573  0.958400  7.710293
H  0.447085  -2.105750  7.710293
O  1.927573  1.927573  0.000000
H  1.927573  2.885973  0.000000
H  2.313681  -2.586747  0.000000
O  1.927573  1.927573  1.927573
H  1.927573  2.885973  1.927573
H  2.313681  -2.586747  1.927573
O  1.927573  1.927573  3.855146
H  1.927573  2.885973  3.855146
H  2.313681  -2.586747  3.855146
O  1.927573  1.927573  5.782720
H  1.927573  2.885973  5.782720
H  2.313681  -2.586747  5.782720
O  1.927573  1.927573  7.710293
H  1.927573  2.885973  7.710293
H  2.313681  -2.586747  7.710293
O  1.927573  3.855146  0.000000
H  1.927573  4.813546  0.000000
H  4.180277  -3.067744  0.000000
O  1.927573  3.855146  1.927573
H  1.927573  4.813546  1.927573
H  4.180277  -3.067744  1.927573
O  1.927573  3.855146  3.855146
H  1.927573  4.813546  3.855146
H  4.180277  -3.067744  3.855146
O  1.927573  3.855146  5.782720
H  1.927573  4.813546  5.782720
H  4.180277  -3.067744  5.782720
O  1.927573  3.855146  7.710293
H  1.927573  4.813546  7.710293
H  4.180277  -3.067744  7.710293
O  1.927573  5.782720  0.000000
H  1.927573  6.741120  0.000000
H  6.046872  -3.548741  0.000000
O  1.927573  5.782720  1.927573
H  1.927573  6.741120  1.927573
H  6.046872  -3.548741  1.927573
O  1.927573  5.782720  3.855146
H  1.927573  6.741120  3.855146
H  6.046872  -3.548741  3.855146
O  1.927573  5.782720  5.782720
H  1.927573  6.741120  5.782720
H  6.046872  -3.548741  5.782720
O  1.927573  5.782720  7.710293
H  1.927573  6.741120  7.710293
H  6.046872  -3.548741  7.710293
O  1.927573  7.710293  0.000000
H  1.927573  8.668693  0.000000
H  7.913468  -4.029739  0.000000
O  1.927573  7.710293  1.927573
H  1.927573  8.668693  1.927573
H  7.913468  -4.029739  1.927573
O  1.927573  7.710293  3.855146
H  1.927573  8.668693  3.855146
H  7.913468  -4.029739  3.855146
O  1.927573  7.710293  5.782720
H  1.927573  8.668693  5.782720
H  7.913468  -4.029739  5.782720
O  1.927573  7.710293  7.710293
H  1.927573  8.668693  7.710293
H  7.913468  -4.029739  7.710293
O  3.855146  0.000000  0.000000
H  3.855146  0.958400  0.000000
H  -0.033912  -3.972346  0.000000
O  3.855146  0.000000  1.927573
H  3.855146  0.958400  1.927573
H  -0.033912  -3.972346  1.927573
O  3.855146  0.000000  3.855146
H  3.855146  0.958400  3.855146
H  -0.033912  -3.972346  3.855146
O  3.855146  0.000000  5.782720
H  3.855146  0.958400  5.782720
H  -0.033912  -3.972346  5.782720
O  3.855146  0.000000  7.710293
H  3.855146  0.958400  7.710293
H  -0.033912  -3.972346  7.710293
O  3.855146  1.927573  0.000000
H  3.855146  2.885973  0.000000
H  1.832684  -4.453343  0.000000
O  3.855146  1.927573  1.927573
H  3.855146  2.885973  1.927573
H  1.832684  -4.453343  1.927573
O  3.855146  1.927573  3.855146
H  3.855146  2.885973  3.855146
H  1.832684  -4.453343  3.855146
O  3.855146  1.927573  5.782720
H  3.855146  2.885973  5.782720
H  1.832684  -4.453343  5.782720
O  3.855146  1.927573  7.710293
H  3.855146  2.885973  7.710293
H  1.832684  -4.453343  7.710293
O  3.855146  3.855146  0.000000
H  3.855146  4.813546  0.000000
H  3.699279  -4.934340  0.000000
O  3.855146  3.855146  1.927573
H  3.855146  4.813546  1.927573
H  3.699279  -4.934340  1.927573
O  3.855146  3.855146  3.855146
H  3.855146  4.813546  3.855146
H  3.699279  -4.934340  3.855146
O  3.855146  3.855146  5.782720
H  3.855146  4.813546  5.782720
H  3.699279  -4.934340  5.782720
O  3.855146  3.855146  7.710293
H  3.855146  4.813546  7.710293
H  3.699279  -4.934340  7.710293
O  3.855146  5.782720  0.000000
H  3.855146  6.741120  0.000000
H  5.565875  -5.415337  0.000000
O  3.855146  5.782720  1.927573
H  3.855146  6.741120  1.927573
H  5.565875  -5.415337  1.927573
O  3.855146  5.782720  3.855146
H  3.855146  6.741120  3.855146
H  5.565875  -5.415337  3.855146
O  3.855146  5.782720  5.782720
H  3.855146  6.741120  5.782720
H  5.565875  -5.415337  5.782720
O  3.855146  5.782720  7.710293
H  3.855146  6.741120  7.710293
H  5.565875  -5.415337  7.710293
O  3.855146  7.710293  0.000000
H  3.855146  8.668693  0.000000
H  7.432471  -5.896334  0.000000
O  3.855146  7.710293  1.927573
H  3.855146  8.668693  1.927573
H  7.432471  -5.896334  1.927573
O  3.855146  7.710293  3.855146
H  3.855146  8.668693  3.855146
H  7.432471  -5.896334  3.855146
O  3.855146  7.710293  5.782720
H  3.855146  8.668693  5.782720
H  7.432471  -5.896334  5.782720
O  3.855146  7.710293  7.710293
H  3.855146  8.668693  7.710293
H  7.432471  -5.896334  7.710293
O  5.782720  0.000000  0.000000
H  5.782720  0.958400  0.000000
H  -0.514909  -5.838942  0.000000
O  5.782720  0.000000  1.927573
H  5.782720  0.958400  1.927573
H  -0.514909  -5.838942  1.927573
O  5.782720  0.000000  3.855146
H  5.782720  0.958400  3.855146
H  -0.514909  -5.838942  3.855146
O  5.782720  0.000000  5.782720
H  5.782720  0.958400  5.782720
H  -0.514909  -5.838942  5.782720
O  5.782720  0.000000  7.710293
H  5.782720  0.958400  7.710293
H  -0.514909  -5.838942  7.710293
O  5.782720  1.927573  0.000000
H  5.782720  2.885973  0.000000
H  1.351686  -6.319939  0.000000
O  5.782720  1.927573  1.927573
H  5.782720  2.885973  1.927573
H  1.351686  -6.319939  1.927573
O  5.782720  1.927573  3.855146
H  5.782720  2.885973  3.855146
H  1.351686  -6.319939  3.855146
O  5.782720  1.927573  5.782720
H  5.782720  2.885973  5.782720
H  1.351686  -6.319939  5.782720
O  5.782720  1.927573  7.710293
H  5.782720  2.885973  7.710293
H  1.351686  -6.319939  7.710293
O  5.782720  3.855146  0.000000
H  5.782720  4.813546  0.000000
H  3.218282  -6.800936  0.000000
O  5.782720  3.855146  1.927573
H  5.782720  4.813546  1.927573
H  3.218282  -6.800936  1.927573
O  5.782720  3.855146  3.855146
H  5.782720  4.813546  3.855146
H  3.218282  -6.800936  3.855146
O  5.782720  3.855146  5.782720
H  5.782720  4.813546  5.782720
H  3.218282  -6.800936  5.782720
O  5.782720  3.855146  7.710293
H  5.782720  4.813546  7.710293
H  3.218282  -6.800936  7.710293
O  5.782720  5.782720  0.000000
H  5.782720  6.741120  0.000000
H  5.084878  -7.281933  0.000000
O  5.782720  5.782720  1.927573
H  5.782720  6.741120  1.927573
H  5.084878  -7.281933  1.927573
O  5.782720  5.782720  3.855146
H  5.782720  6.741120  3.855146
H  5.084878  -7.281933  3.855146
O  5.782720  5.782720  5.782720
H  5.782720  6.741120  5.782720
H  5.084878  -7.281933  5.782720
O  5.782720  5.782720  7.710293
H  5.782720  6.741120  7.710293
H  5.084878  -7.281933  7.710293
O  5.782720  7.710293  0.000000
H  5.782720  8.668693  0.000000
H  6.951474  -7.762930  0.000000
O  5.782720  7.710293  1.927573
H  5.782720  8.668693  1.927573
H  6.951474  -7.762930  1.927573
O  5.782720  7.710293  3.855146
H  5.782720  8.668693  3.855146
H  6.951474  -7.762930  3.855146
O  5.782720  7.710293  5.782720
H  5.782720  8.668693  5.782720
H  6.951474  -7.762930  5.782720
O  5.782720  7.710293  7.710293
H  5.782720  8.668693  7.710293
H  6.951474  -7.762930  7.710293
O  7.710293  0.000000  0.000000
H  7.710293  0.958400  0.000000
H  -0.995906  -7.705538  0.000000
O  7.710293  0.000000  1.927573
H  7.710293  0.958400  1.927573
H  -0.995906  -7.705538  1.927573
O  7.710293  0.000000  3.855146
H  7.710293  0.958400  3.855146
H  -0.995906  -7.705538  3.855146
O  7.710293  0.000000  5.782720
H  7.710293  0.958400  5.782720
H  -0.995906  -7.705538  5.782720
O  7.710293  0.000000  7.710293
H  7.710293  0.958400  7.710293
H  -0.995906  -7.705538  7.710293
O  7.710293  1.927573  0.000000
H  7.710293  2.885973  0.000000
H  0.870689  -8.186535  0.000000
O  7.710293  1.927573  1.927573
H  7.710293  2.885973  1.927573
H  0.870689  -8.186535  1.927573
O  7.710293  1.927573  3.855146
H  7.710293  2.885973  3.855146
H  0.870689  -8.186535  3.855146
O  7.710293  1.927573  5.782720
H  7.710293  2.885973  5.782720
H  0.870689  -8.186535  5.782720
O  7.710293  1.927573  7.710293
H  7.710293  2.885973  7.710293
H  0.870689  -8.186535  7.710293
O  7.710293  3.855146  0.000000
H  7.710293  4.813546  0.000000
H  2.737285  -8.667532  0.000000
O  7.710293  3.855146  1.927573
H  7.710293  4.813546  1.927573
H  2.737285  -8.667532  1.927573
O  7.710293  3.855146  3.855146
H  7.710293  4.813546  3.855146
H  2.737285  -8.667532  3.855146
O  7.710293  3.855146  5.782720
H  7.710293  4.813546  5.782720
H  2.737285  -8.667532  5.782720
O  7.710293  3.855146  7.710293
H  7.710293  4.813546  7.710293
H  2.737285  -8.667532  7.710293
O  7.710293  5.782720  0.000000
H  7.710293  6.741120  0.000000
H  4.603881  -9.148529  0.000000
O  7.710293  5.782720  1.927573
H  7.710293  6.741120  1.927573
H  4.603881  -9.148529  1.927573
O  7.710293  5.782720  3.855146
H  7.710293  6.741120  3.855146
H  4.603881  -9.148529  3.855146
O  7.710293  5.782720  5.782720
H  7.710293  6.741120  5.782720
H  4.603881  -9.148529  5.782720
O  7.710293  5.782720  7.710293
H  7.710293  6.741120  7.710293
H  4.603881  -9.148529  7.710293
O  7.710293  7.710293  0.000000
H  7.710293  8.668693  0.000000
H  6.470477  -9.629526  0.000000
O  7.710293  7.710293  1.927573
H  7.710293  8.668693  1.927573
H  6.470477  -9.629526  1.927573
O  7.710293  7.710293  3.855146
H  7.710293  8.668693  3.855146
H  6.470477  -9.629526  3.855146
O  7.710293  7.710293  5.782720
H  7.710293  8.668693  5.782720
H  6.470477  -9.629526  5.782720
O  7.710293  7.710293  7.710293
H  7.710293  8.668693  7.710293
H  6.470477  -9.629526  7.710293
